Version 4
SHEET 1 2764 992
WIRE -16 -320 -16 -352
WIRE -16 -320 -128 -320
WIRE -128 -288 -128 -320
WIRE -16 -288 -16 -320
WIRE -128 -192 -128 -224
WIRE -16 -192 -16 -208
WIRE -16 -192 -128 -192
WIRE -16 -160 -16 -192
WIRE 480 -32 448 -32
WIRE 592 -32 560 -32
WIRE 896 -32 864 -32
WIRE 1008 -32 976 -32
WIRE 1264 64 1232 64
WIRE 1408 64 1344 64
WIRE 1552 64 1520 64
WIRE 1696 64 1632 64
WIRE -32 80 -32 48
WIRE 448 80 448 -32
WIRE 480 80 448 80
WIRE 592 80 592 -32
WIRE 592 80 544 80
WIRE 864 80 864 -32
WIRE 896 80 864 80
WIRE 1008 80 1008 -32
WIRE 1008 80 960 80
WIRE -64 96 -304 96
WIRE -64 128 -144 128
WIRE -304 160 -304 96
WIRE 256 176 112 176
WIRE 368 176 336 176
WIRE 448 176 448 80
WIRE 448 176 432 176
WIRE 480 176 448 176
WIRE 592 176 592 80
WIRE 672 176 592 176
WIRE 784 176 752 176
WIRE 864 176 864 80
WIRE 864 176 848 176
WIRE 896 176 864 176
WIRE 592 192 592 176
WIRE 592 192 544 192
WIRE 1008 192 1008 80
WIRE 1008 192 960 192
WIRE 1136 192 1008 192
WIRE 1232 192 1232 64
WIRE 1232 192 1216 192
WIRE 1264 192 1232 192
WIRE 1408 192 1408 64
WIRE 1520 192 1520 64
WIRE 1520 192 1488 192
WIRE 1552 192 1520 192
WIRE 464 208 448 208
WIRE 480 208 464 208
WIRE 896 208 864 208
WIRE 1408 208 1408 192
WIRE 1408 208 1328 208
WIRE 1696 208 1696 64
WIRE 1696 208 1616 208
WIRE -144 224 -144 208
WIRE -64 224 -144 224
WIRE 464 224 464 208
WIRE 464 224 368 224
WIRE 864 224 864 208
WIRE 864 224 816 224
WIRE 1264 224 1232 224
WIRE 1552 224 1520 224
WIRE -304 256 -304 240
WIRE -64 256 -304 256
WIRE -304 304 -304 256
WIRE 48 368 48 240
WIRE 368 368 368 224
WIRE 368 368 48 368
WIRE 816 368 816 224
WIRE 816 368 368 368
WIRE 1232 368 1232 224
WIRE 1232 368 816 368
WIRE 1520 368 1520 224
WIRE 1520 368 1232 368
WIRE -160 384 -160 352
WIRE 48 464 48 368
WIRE 48 464 -96 464
WIRE -96 480 -96 464
WIRE -64 480 -96 480
WIRE 48 496 48 464
WIRE 48 496 0 496
WIRE -160 512 -160 464
WIRE -64 512 -160 512
WIRE -160 528 -160 512
FLAG -160 608 0
FLAG -304 304 0
FLAG -16 -160 0
FLAG -16 -352 V+
FLAG -160 352 V+
FLAG -32 272 0
FLAG -32 48 V+
FLAG 512 160 V+
FLAG 512 224 0
FLAG 928 160 V+
FLAG 928 224 0
FLAG 1296 176 V+
FLAG 1296 240 0
FLAG 1584 176 V+
FLAG 1584 240 0
FLAG 448 256 0
FLAG 864 256 0
SYMBOL res -176 512 R0
SYMATTR InstName R3
SYMATTR Value 10000
SYMBOL res -176 368 R0
SYMATTR InstName R2
SYMATTR Value 10000
SYMBOL voltage -304 144 R0
WINDOW 3 -623 57 Left 2
WINDOW 123 24 44 Left 2
WINDOW 39 0 0 Left 0
SYMATTR Value PWL file=ECG_LTSPICE_Signal.txt
SYMATTR Value2 AC 1
SYMATTR InstName V1
SYMBOL voltage -16 -304 R0
WINDOW 123 0 0 Left 0
WINDOW 39 0 0 Left 0
SYMATTR InstName V2
SYMATTR Value 5
SYMBOL cap -144 -288 R0
SYMATTR InstName C5
SYMATTR Value 10µ
SYMBOL OpAmps\\opamp -32 432 R0
SYMATTR InstName U3
SYMBOL OpAmps\\AD8226 -32 176 R0
SYMATTR InstName U9
SYMBOL res -160 112 R0
SYMATTR InstName R1
SYMATTR Value 1k
SYMBOL OpAmps\\UniversalOpamp2 512 192 R0
SYMATTR InstName U1
SYMBOL res 352 160 R90
WINDOW 0 0 56 VBottom 2
WINDOW 3 32 56 VTop 2
SYMATTR InstName R4
SYMATTR Value 200k
SYMBOL res 576 -48 R90
WINDOW 0 0 56 VBottom 2
WINDOW 3 32 56 VTop 2
SYMATTR InstName R7
SYMATTR Value 1Meg
SYMBOL cap 544 64 R90
WINDOW 0 0 32 VBottom 2
WINDOW 3 32 32 VTop 2
SYMATTR InstName C2
SYMATTR Value 1n
SYMBOL cap 432 160 R90
WINDOW 0 0 32 VBottom 2
WINDOW 3 32 32 VTop 2
SYMATTR InstName C4
SYMATTR Value 1µ
SYMBOL OpAmps\\UniversalOpamp2 928 192 R0
SYMATTR InstName U2
SYMBOL res 768 160 R90
WINDOW 0 0 56 VBottom 2
WINDOW 3 32 56 VTop 2
SYMATTR InstName R5
SYMATTR Value 200k
SYMBOL res 992 -48 R90
WINDOW 0 0 56 VBottom 2
WINDOW 3 32 56 VTop 2
SYMATTR InstName R6
SYMATTR Value 1Meg
SYMBOL cap 960 64 R90
WINDOW 0 0 32 VBottom 2
WINDOW 3 32 32 VTop 2
SYMATTR InstName C1
SYMATTR Value 1n
SYMBOL cap 848 160 R90
WINDOW 0 0 32 VBottom 2
WINDOW 3 32 32 VTop 2
SYMATTR InstName C3
SYMATTR Value 1µ
SYMBOL OpAmps\\UniversalOpamp2 1296 208 R0
SYMATTR InstName U4
SYMBOL res 1360 48 R90
WINDOW 0 0 56 VBottom 2
WINDOW 3 32 56 VTop 2
SYMATTR InstName R8
SYMATTR Value 200k
SYMBOL res 1232 176 R90
WINDOW 0 0 56 VBottom 2
WINDOW 3 32 56 VTop 2
SYMATTR InstName R9
SYMATTR Value 100k
SYMBOL OpAmps\\UniversalOpamp2 1584 208 R0
SYMATTR InstName U5
SYMBOL res 1648 48 R90
WINDOW 0 0 56 VBottom 2
WINDOW 3 32 56 VTop 2
SYMATTR InstName R10
SYMATTR Value 200k
SYMBOL res 1504 176 R90
WINDOW 0 0 56 VBottom 2
WINDOW 3 32 56 VTop 2
SYMATTR InstName R11
SYMATTR Value 100k
TEXT -568 472 Left 2 !.lib opamp.sub
TEXT 264 544 Left 2 !.tran 0 2 0.1
TEXT 256 504 Left 2 !;ac dec 100 0.0001 100k
TEXT 480 -192 Left 6 ;Bandpass
TEXT 392 -120 Left 2 ;https://www.electronics-tutorials.ws/filter/filter_7.html
