Version 4
SHEET 1 1684 992
WIRE -16 -320 -16 -352
WIRE -16 -320 -128 -320
WIRE -128 -288 -128 -320
WIRE -16 -288 -16 -320
WIRE -128 -192 -128 -224
WIRE -16 -192 -16 -208
WIRE -16 -192 -128 -192
WIRE -16 -160 -16 -192
WIRE -32 80 -32 48
WIRE 592 80 544 80
WIRE 720 80 672 80
WIRE -64 96 -304 96
WIRE 320 96 224 96
WIRE 224 144 224 96
WIRE 240 144 224 144
WIRE -304 160 -304 96
WIRE 320 160 320 96
WIRE 320 160 304 160
WIRE 352 160 320 160
WIRE 544 160 544 80
WIRE 544 160 496 160
WIRE 576 160 544 160
WIRE -144 176 -144 128
WIRE -144 176 -208 176
WIRE 240 176 112 176
WIRE 720 176 720 80
WIRE 720 176 640 176
WIRE 576 192 528 192
WIRE -144 224 -144 176
WIRE 528 240 528 192
WIRE 528 240 240 240
WIRE -304 256 -304 240
WIRE -64 256 -304 256
WIRE -304 304 -304 256
WIRE -96 384 -96 352
WIRE 48 384 48 240
WIRE 112 384 48 384
WIRE 112 416 112 384
WIRE 240 416 240 240
WIRE 240 416 112 416
WIRE 112 464 112 416
WIRE 112 464 -32 464
WIRE -32 480 -32 464
WIRE 0 480 -32 480
WIRE 304 480 240 480
WIRE 112 496 112 464
WIRE 112 496 64 496
WIRE -96 512 -96 464
WIRE 0 512 -96 512
WIRE -96 528 -96 512
WIRE 368 528 368 480
WIRE 432 528 368 528
WIRE 240 560 240 480
WIRE 288 560 240 560
WIRE 368 560 368 528
WIRE 432 608 432 528
WIRE -208 672 -208 176
WIRE 240 672 240 560
WIRE 240 672 -208 672
WIRE 288 672 240 672
WIRE 432 688 432 608
WIRE 432 688 352 688
WIRE 288 704 256 704
WIRE 256 800 256 784
FLAG -96 608 0
FLAG -304 304 0
FLAG -16 -160 0
FLAG -16 -352 V+
FLAG -96 352 V+
FLAG -32 272 0
FLAG -32 48 V+
FLAG 256 800 0
FLAG 528 288 0
FLAG 512 608 0
SYMBOL res -112 512 R0
SYMATTR InstName R3
SYMATTR Value 10000
SYMBOL res -112 368 R0
SYMATTR InstName R2
SYMATTR Value 10000
SYMBOL voltage -304 144 R0
WINDOW 3 -623 57 Left 2
WINDOW 123 0 0 Left 0
WINDOW 39 0 0 Left 0
SYMATTR Value PWL file=ECG_LTSPICE_Signal.txt
SYMATTR InstName V1
SYMBOL voltage -16 -304 R0
WINDOW 123 0 0 Left 0
WINDOW 39 0 0 Left 0
SYMATTR InstName V2
SYMATTR Value 5
SYMBOL cap -144 -288 R0
SYMATTR InstName C5
SYMATTR Value 10µ
SYMBOL OpAmps\\opamp 32 432 R0
SYMATTR InstName U3
SYMBOL OpAmps\\AD8226 -32 176 R0
SYMATTR InstName U9
SYMBOL OpAmps\\opamp 272 96 R0
SYMATTR InstName U1
SYMBOL res -48 112 R90
WINDOW 0 0 56 VBottom 2
WINDOW 3 32 56 VTop 2
SYMATTR InstName R1
SYMATTR Value 5k
SYMBOL res -48 208 R90
WINDOW 0 0 56 VBottom 2
WINDOW 3 32 56 VTop 2
SYMATTR InstName R4
SYMATTR Value 5k
SYMBOL OpAmps\\opamp 320 624 R0
SYMATTR InstName U2
SYMBOL res 272 800 R180
WINDOW 0 36 76 Left 2
WINDOW 3 36 40 Left 2
SYMATTR InstName R5
SYMATTR Value 200k
SYMBOL cap 368 464 R90
WINDOW 0 0 32 VBottom 2
WINDOW 3 32 32 VTop 2
SYMATTR InstName C1
SYMATTR Value .5nF
SYMBOL res 384 544 R90
WINDOW 0 0 56 VBottom 2
WINDOW 3 32 56 VTop 2
SYMATTR InstName R6
SYMATTR Value 1Meg
SYMBOL res 528 592 R90
WINDOW 0 0 56 VBottom 2
WINDOW 3 32 56 VTop 2
SYMATTR InstName R7
SYMATTR Value 100k
SYMBOL OpAmps\\opamp 608 112 R0
SYMATTR InstName U4
SYMBOL res 512 144 R90
WINDOW 0 0 56 VBottom 2
WINDOW 3 32 56 VTop 2
SYMATTR InstName R8
SYMATTR Value 500k
SYMBOL res 688 64 R90
WINDOW 0 0 56 VBottom 2
WINDOW 3 32 56 VTop 2
SYMATTR InstName R9
SYMATTR Value 1Meg
SYMBOL cap 416 144 R90
WINDOW 0 0 32 VBottom 2
WINDOW 3 32 32 VTop 2
SYMATTR InstName C2
SYMATTR Value 1n
TEXT -568 472 Left 2 !.lib opamp.sub
TEXT -564 528 Left 2 !.tran 0 2 0 .1
